

 <DUALSPHYSICS5> Copyright (c) 2020 by
 Dr Jose M. Dominguez Alonso, Dr Alejandro Crespo,
 Prof. Moncho Gomez Gesteira, Prof. Benedict Rogers,
 Dr Georgios Fourtakas, Prof. Peter Stansby,
 Dr Renato Vacondio, Dr Corrado Altomare, Dr Angelo Tafuni,
 Orlando Garcia Feal, Ivan Martinez Estevez

 EPHYSLAB Environmental Physics Laboratory, Universidade de Vigo
 School of Mechanical, Aerospace and Civil Engineering, University of Manchester

 DualSPHysics is free software: you can redistribute it and/or
 modify it under the terms of the GNU Lesser General Public License
 as published by the Free Software Foundation, either version 2.1 of
 the License, or (at your option) any later version.

 DualSPHysics is distributed in the hope that it will be useful,
 but WITHOUT ANY WARRANTY; without even the implied warranty of
 MERCHANTABILITY or FITNESS FOR A PARTICULAR PURPOSE.  See the
 GNU Lesser General Public License for more details.

 You should have received a copy of the GNU Lesser General Public License
 along with DualSPHysics. If not, see <http://www.gnu.org/licenses/>.


DualSPHysics5 v5.0.140 (18-07-2020)
====================================
[Select CUDA Device]
[CUDA Capable device(s)]
  Detected 1 CUDA Capable device(s)
  CUDA Driver Version / Runtime Version: 11.0 / 9.2
 
Device 0: "GeForce GTX 1050"
  CUDA Capability Major....: 6.1
  Global memory............: 3072 MBytes
  CUDA Cores...............: 768 ( 6 Multiprocessors, 128 CUDA Cores/MP)
  GPU Max Clock rate.......: 1442 MHz (1.44 GHz)
  Memory Clock rate........: 3504 Mhz
  Memory Bus Width.........: 96-bit
  L2 Cache Size............: 768 KBytes
  Constant memory..........: 64 KBytes
  Shared memory per block..: 48 KBytes
  Registers per block......: 65536
  Maximum threads per MP...: 2048
  Maximum threads per block: 1024
  Concurrent copy and kernel execution....: Yes with 5 copy engine(s)
  Run time limit on kernels...............: Yes
  Integrated GPU sharing Host Memory......: No
  Support host page-locked memory mapping.: Yes
  Device has ECC support..................: Disabled
  CUDA Device Driver Mode (TCC or WDDM)...: WDDM (Windows Display Driver Model)
  Device supports Unified Addressing (UVA): Yes
  Device PCI (Domain / Bus / location)....: 0 / 1 / 0
  Device supports P2P and RDMA............: No
 
[GPU Hardware]
Device default: 0  "GeForce GTX 1050"
Compute capability: 6.1
Memory global: 3072 MB
Memory shared: 49152 Bytes
[Initialising JSphGpuSingle  22-03-2021 15:41:55]
ProgramFile=".../bin/windows/DualSPHysics5.0_win64.exe"
ExecutionDir=".../examples/chrono/01_Pendulum"
XmlFile=".../01_Pendulum/CasePendulum_out/CasePendulum.xml"
OutputDir=".../chrono/01_Pendulum/CasePendulum_out"
OutputDataDir=".../01_Pendulum/CasePendulum_out/data"
XML-Vars (uservars + ctes): CaseName=["CasePendulum"]  Data2D=[0]  Data2DPosy=[0]  H=[0.0866025]  KernelSize=[0.173205]  B=[1.42857e+06]  Gamma=[7]  Rhop0=[1000]  Dp=[0.05]  Gravity_x=[0]  Gravity_y=[0]  Gravity_z=[-9.81]  MassFluid=[0.125]  MassBound=[0.125]
XML-Vars (parameters): TimeMax=[6]  TimeOut=[0.01]
Threads by host for parallel execution in Chrono: 1
**Basic case configuration is loaded
**Special case configuration is loaded
Loading initial state of particles...
Loaded particles: 7828
MapRealPos(border)=(3.99567,0.49567,-0.00433013)-(5.95433,9.45433,5.05433)
MapRealPos(final)=(3.99567,0.49567,-0.00433013)-(5.95433,9.45433,5.5602)
**Initial state of particles is loaded
**3D-Simulation parameters:
CaseName="CasePendulum"
RunName="CasePendulum"
Symmetry=False
SavePosDouble=False
SaveFtAce=False
SvTimers=True
PIPS-steps=100
Boundary="DBC"
StepAlgorithm="Symplectic"
Kernel="Wendland"
  Wendland.awen=643.214417
  Wendland.bwen=-37136.179688
Viscosity="Artificial"
  Visco=0.010000
  ViscoBoundFactor=1.000000
DensityDiffusion="None"
Shifting="None"
RigidAlgorithm="SPH+CHRONO"
FloatingCount=4
FtPause=0.000000
FtConstraints=False
FtIgnoreRadius=False
CaseNp=7828
CaseNbound=7828
CaseNfixed=7200
CaseNmoving=0
CaseNfloat=628
CaseNfluid=0
PeriodicActive="None"
Dp=0.05
KernelH=0.086603  (CoefficientH=1; H/Dp=1.73205)
KernelSize=0.173205
CteB=1428571.375000
Gamma=7.000000
RhopZero=1000.000000
Cs0=100
CFLnumber=0.200000
DtIni=0.000866025
DtMin=4.33013e-05
DtAllParticles=False
MassFluid=0.125000
MassBound=0.125000
FtPause=0.000000
TimeMax=6
TimePart=0.01
Gravity=(0.000000,0.000000,-9.810000)
NpMinimum=7828
RhopOut=True
RhopOutMin=700.000000
RhopOutMax=1300.000000
WrnPartsOut=True
**Requested GPU memory for 7956 particles: 1.4 MB (0 times).
CellMode="Full"
ScellDiv=1
MapCells=(12,52,33)
DomCells=(12,52,33)
DomCellCode="11_11_11"
PosCellCode="13_10_9 (8192,1024,512)"
PosCellSize=0.173205  (1 x KernelSize)
 
BlockSize calculation mode: Fixed.
  BsForcesBound=128 (48 regs)
  BsForcesFluid=128 (60 regs)
 
**CellDiv: Requested gpu memory for 8347 particles: 0.1 MB.
**CellDiv: Requested gpu memory for 540 cells (CellMode=Full): 0.0 MB.
 
RunMode="Pos-Cell - Single-Gpu"
 
Particle summary:
  Fixed....: 7200  id:(0-7199)   MKs:1 (15)
  Moving...: 0
  Floating.: 628  id:(7200-7827)   MKs:4 (10-13)
  Fluid....: 0

Total particles: 7828 (bound=7828 (fx=7200 mv=0 ft=628) fluid=0)
Total MK blocks: 5 (bound=5 (fx=1 mv=0 ft=4) fluid=0)
 
Chrono Objects configuration:
  DSPHChrono version: v5.0.140
  Data directory...: [CasePendulum_out/chrono_objs/]
  Collisions.......: False
  Execution mode...: Single Core
  OpenMP Threads...: 1
  Bodies...........: 4
  Links............: 4
  Body_0000 "arm0" -  type: Floating
    MkBound......: 0
    Mass.........: 19.625
    Center.......: (5,5.51592,5)
    Inertia......: (1.61252,0.0725,1.61252) (xx,yy,zz)
    Inertia......: (-2.08167e-17,2.63523e-18,-2.1684e-20) (xy,yz,xz)
    Links......: 2
      Link_arm0
      Link_arm0_arm1
  Body_0001 "arm1" -  type: Floating
    MkBound......: 1
    Mass.........: 19.625
    Center.......: (5,6.51592,5)
    Inertia......: (1.61252,0.0725,1.61252) (xx,yy,zz)
    Inertia......: (-2.08167e-17,2.63523e-18,-2.1684e-20) (xy,yz,xz)
    Links......: 2
      Link_arm0_arm1
      Link_arm1_arm2
  Body_0002 "arm2" -  type: Floating
    MkBound......: 2
    Mass.........: 19.625
    Center.......: (5,7.51592,5)
    Inertia......: (1.61252,0.0725,1.61252) (xx,yy,zz)
    Inertia......: (4.46691e-17,2.63523e-18,-2.1684e-20) (xy,yz,xz)
    Links......: 2
      Link_arm1_arm2
      Link_arm2_arm3
  Body_0003 "arm3" -  type: Floating
    MkBound......: 3
    Mass.........: 19.625
    Center.......: (5,8.51592,5)
    Inertia......: (1.61252,0.0725,1.61252) (xx,yy,zz)
    Inertia......: (1.95156e-17,4.66828e-19,-2.1684e-20) (xy,yz,xz)
    Links......: 1
      Link_arm2_arm3
  Link "Link_arm0" -  type: Spheric
    Rotation point: (5,5,5)
    Stiffness.....: 0
    Damping.......: 0
    Bodies........: 1
      Body_0000 "arm0"
  Link "Link_arm0_arm1" -  type: Spheric
    Rotation point: (5,6,5)
    Stiffness.....: 0
    Damping.......: 0
    Bodies........: 2
      Body_0000 "arm0"
      Body_0001 "arm1"
  Link "Link_arm1_arm2" -  type: Spheric
    Rotation point: (5,7,5)
    Stiffness.....: 0
    Damping.......: 0
    Bodies........: 2
      Body_0001 "arm1"
      Body_0002 "arm2"
  Link "Link_arm2_arm3" -  type: Spheric
    Rotation point: (5,8,5)
    Stiffness.....: 0
    Damping.......: 0
    Bodies........: 2
      Body_0002 "arm2"
      Body_0003 "arm3"
 
Allocated memory in CPU: 763000 (0.73 MB)
Allocated memory in GPU: 1544676 (1.47 MB)
Part_0000        7828 particles successfully stored

[Initialising simulation (bif3fe7x)  22-03-2021 15:41:56]
PART       PartTime      TotalSteps    Steps    Time/Sec   Finish time        
=========  ============  ============  =======  =========  ===================
Part_0001      0.010046            54       54      18.72  22-03-2021 15:43:48
Part_0002      0.020092           112       58      19.80  22-03-2021 15:43:51
Part_0003      0.030138           170       58      19.63  22-03-2021 15:43:51
Part_0004      0.040010           227       57      19.00  22-03-2021 15:43:51
Part_0005      0.050056           285       58      19.18  22-03-2021 15:43:50
Part_0006      0.060102           343       58      19.08  22-03-2021 15:43:51
Part_0007      0.070148           401       58      20.01  22-03-2021 15:43:51
Part_0008      0.080021           458       57      19.77  22-03-2021 15:43:51
Part_0009      0.090067           516       58      19.24  22-03-2021 15:43:51
Part_0010      0.100113           574       58      19.41  22-03-2021 15:43:51
Part_0011      0.110158           632       58      19.26  22-03-2021 15:43:52
Part_0012      0.120031           689       57      19.07  22-03-2021 15:43:51
Part_0013      0.130077           747       58      19.24  22-03-2021 15:43:51
Part_0014      0.140123           805       58      20.47  22-03-2021 15:43:51
Part_0015      0.150169           863       58      21.58  22-03-2021 15:43:52
Part_0016      0.160041           920       57      19.51  22-03-2021 15:43:53
Part_0017      0.170087           978       58      19.37  22-03-2021 15:43:53
Part_0018      0.180133          1036       58      19.05  22-03-2021 15:43:52
Part_0019      0.190006          1093       57      19.30  22-03-2021 15:43:52
Part_0020      0.200052          1151       58      19.75  22-03-2021 15:43:52
Part_0021      0.210098          1209       58      19.45  22-03-2021 15:43:53
Part_0022      0.220144          1267       58      18.94  22-03-2021 15:43:52
Part_0023      0.230016          1324       57      18.95  22-03-2021 15:43:52
Part_0024      0.240062          1382       58      18.81  22-03-2021 15:43:52
Part_0025      0.250108          1440       58      19.16  22-03-2021 15:43:51
Part_0026      0.260154          1498       58      19.95  22-03-2021 15:43:52
Part_0027      0.270027          1555       57      19.73  22-03-2021 15:43:52
Part_0028      0.280073          1613       58      18.99  22-03-2021 15:43:52
Part_0029      0.290119          1671       58      19.47  22-03-2021 15:43:52
**CellDiv: Requested gpu memory for 910 cells (CellMode=Full): 0.0 MB.
Part_0030      0.300164          1729       58      19.50  22-03-2021 15:43:51
Part_0031      0.310037          1786       57      20.49  22-03-2021 15:43:52
Part_0032      0.320083          1844       58      19.62  22-03-2021 15:43:52
Part_0033      0.330129          1902       58      21.33  22-03-2021 15:43:52
Part_0034      0.340002          1959       57      19.10  22-03-2021 15:43:52
Part_0035      0.350047          2017       58      19.30  22-03-2021 15:43:52
Part_0036      0.360093          2075       58      19.28  22-03-2021 15:43:53
Part_0037      0.370139          2133       58      19.24  22-03-2021 15:43:52
Part_0038      0.380012          2190       57      19.23  22-03-2021 15:43:52
Part_0039      0.390058          2248       58      19.28  22-03-2021 15:43:52
Part_0040      0.400104          2306       58      19.35  22-03-2021 15:43:52
Part_0041      0.410150          2364       58      19.37  22-03-2021 15:43:53
Part_0042      0.420022          2421       57      20.08  22-03-2021 15:43:52
Part_0043      0.430068          2479       58      19.60  22-03-2021 15:43:52
Part_0044      0.440114          2537       58      21.99  22-03-2021 15:43:52
Part_0045      0.450160          2595       58      19.45  22-03-2021 15:43:52
Part_0046      0.460033          2652       57      19.80  22-03-2021 15:43:53
Part_0047      0.470079          2710       58      19.61  22-03-2021 15:43:53
Part_0048      0.480124          2768       58      19.37  22-03-2021 15:43:53
Part_0049      0.490170          2826       58      20.23  22-03-2021 15:43:52
Part_0050      0.500043          2883       57      19.58  22-03-2021 15:43:52
Part_0051      0.510089          2941       58      19.90  22-03-2021 15:43:53
**CellDiv: Requested gpu memory for 1375 cells (CellMode=Full): 0.0 MB.
Part_0052      0.520135          2999       58      20.47  22-03-2021 15:43:53
Part_0053      0.530008          3056       57      19.44  22-03-2021 15:43:53
Part_0054      0.540053          3114       58      19.40  22-03-2021 15:43:53
Part_0055      0.550099          3172       58      19.30  22-03-2021 15:43:52
Part_0056      0.560145          3230       58      19.83  22-03-2021 15:43:53
Part_0057      0.570018          3287       57      19.38  22-03-2021 15:43:53
Part_0058      0.580064          3345       58      19.29  22-03-2021 15:43:53
Part_0059      0.590110          3403       58      19.09  22-03-2021 15:43:53
Part_0060      0.600156          3461       58      19.32  22-03-2021 15:43:52
Part_0061      0.610028          3518       57      20.87  22-03-2021 15:43:52
Part_0062      0.620074          3576       58      25.90  22-03-2021 15:43:54
Part_0063      0.630120          3634       58      21.04  22-03-2021 15:43:54
Part_0064      0.640166          3692       58      23.68  22-03-2021 15:43:54
Part_0065      0.650039          3749       57      23.92  22-03-2021 15:43:54
Part_0066      0.660085          3807       58      23.35  22-03-2021 15:43:55
Part_0067      0.670130          3865       58      23.14  22-03-2021 15:43:55
Part_0068      0.680003          3922       57      21.76  22-03-2021 15:43:55
Part_0069      0.690049          3980       58      22.01  22-03-2021 15:43:55
Part_0070      0.700057          4039       59      23.06  22-03-2021 15:43:56
Part_0071      0.710012          4100       61      20.79  22-03-2021 15:43:56
Part_0072      0.720066          4164       64      25.97  22-03-2021 15:43:56
Part_0073      0.730051          4230       66      22.42  22-03-2021 15:43:56
Part_0074      0.740112          4299       69      24.29  22-03-2021 15:43:57
Part_0075      0.750097          4370       71      25.90  22-03-2021 15:43:57
Part_0076      0.760010          4443       73      24.72  22-03-2021 15:43:57
Part_0077      0.770110          4520       77      27.12  22-03-2021 15:43:58
Part_0078      0.780124          4599       79      27.77  22-03-2021 15:43:59
Part_0079      0.790053          4680       81      27.04  22-03-2021 15:43:59
Part_0080      0.800013          4764       84      29.93  22-03-2021 15:43:59
Part_0081      0.810105          4852       88      30.80  22-03-2021 15:44:00
Part_0082      0.820087          4942       90      30.15  22-03-2021 15:44:01
Part_0083      0.830074          5035       93      32.28  22-03-2021 15:44:02
Part_0084      0.840091          5131       96      32.05  22-03-2021 15:44:02
Part_0085      0.850098          5229       98      37.48  22-03-2021 15:44:04
Part_0086      0.860100          5328       99      32.66  22-03-2021 15:44:04
Part_0087      0.870010          5426       98      32.04  22-03-2021 15:44:05
Part_0088      0.880004          5524       98      32.29  22-03-2021 15:44:06
Part_0089      0.890040          5621       97      31.18  22-03-2021 15:44:07
Part_0090      0.900063          5716       95      30.58  22-03-2021 15:44:07
Part_0091      0.910006          5808       92      31.83  22-03-2021 15:44:08
Part_0092      0.920012          5898       90      29.41  22-03-2021 15:44:08
Part_0093      0.930005          5985       87      30.29  22-03-2021 15:44:09
Part_0094      0.940010          6069       84      28.88  22-03-2021 15:44:10
Part_0095      0.950036          6150       81      26.84  22-03-2021 15:44:10
Part_0096      0.960074          6228       78      25.94  22-03-2021 15:44:10
Part_0097      0.970092          6303       75      25.19  22-03-2021 15:44:10
Part_0098      0.980043          6375       72      23.98  22-03-2021 15:44:10
Part_0099      0.990022          6445       70      23.23  22-03-2021 15:44:10
Part_0100      1.000142          6514       69      22.79  22-03-2021 15:44:10
Part_0101      1.010076          6580       66      22.14  22-03-2021 15:44:10
Part_0102      1.020094          6645       65      22.26  22-03-2021 15:44:10
Part_0103      1.030020          6708       63      21.33  22-03-2021 15:44:10
Part_0104      1.040158          6771       63      20.90  22-03-2021 15:44:10
Part_0105      1.050007          6831       60      20.36  22-03-2021 15:44:10
Part_0106      1.060050          6891       60      21.14  22-03-2021 15:44:09
Part_0107      1.070120          6950       59      19.98  22-03-2021 15:44:10
Part_0108      1.080160          7008       58      19.29  22-03-2021 15:44:10
Part_0109      1.090033          7065       57      19.38  22-03-2021 15:44:09
Part_0110      1.100079          7123       58      19.35  22-03-2021 15:44:09
Part_0111      1.110125          7181       58      19.25  22-03-2021 15:44:09
Part_0112      1.120171          7239       58      19.33  22-03-2021 15:44:08
Part_0113      1.130043          7296       57      19.43  22-03-2021 15:44:09
Part_0114      1.140089          7354       58      19.91  22-03-2021 15:44:09
Part_0115      1.150135          7412       58      19.27  22-03-2021 15:44:08
Part_0116      1.160008          7469       57      19.88  22-03-2021 15:44:08
Part_0117      1.170054          7527       58      19.40  22-03-2021 15:44:08
Part_0118      1.180100          7585       58      19.82  22-03-2021 15:44:08
Part_0119      1.190146          7643       58      20.97  22-03-2021 15:44:08
Part_0120      1.200018          7700       57      19.39  22-03-2021 15:44:08
Part_0121      1.210064          7758       58      19.90  22-03-2021 15:44:07
Part_0122      1.220110          7816       58      19.49  22-03-2021 15:44:07
Part_0123      1.230156          7874       58      20.89  22-03-2021 15:44:08
Part_0124      1.240029          7931       57      19.75  22-03-2021 15:44:07
Part_0125      1.250074          7989       58      19.41  22-03-2021 15:44:07
**CellDiv: Requested gpu memory for 1980 cells (CellMode=Full): 0.0 MB.
Part_0126      1.260120          8047       58      19.51  22-03-2021 15:44:07
Part_0127      1.270166          8105       58      19.37  22-03-2021 15:44:07
Part_0128      1.280039          8162       57      19.71  22-03-2021 15:44:07
Part_0129      1.290085          8220       58      19.54  22-03-2021 15:44:07
Part_0130      1.300131          8278       58      19.57  22-03-2021 15:44:07
Part_0131      1.310003          8335       57      19.92  22-03-2021 15:44:06
Part_0132      1.320049          8393       58      19.46  22-03-2021 15:44:06
Part_0133      1.330095          8451       58      19.60  22-03-2021 15:44:07
Part_0134      1.340141          8509       58      20.78  22-03-2021 15:44:06
Part_0135      1.350014          8566       57      20.04  22-03-2021 15:44:06
Part_0136      1.360060          8624       58      20.36  22-03-2021 15:44:06
Part_0137      1.370106          8682       58      19.36  22-03-2021 15:44:06
Part_0138      1.380151          8740       58      19.88  22-03-2021 15:44:06
Part_0139      1.390024          8797       57      20.73  22-03-2021 15:44:06
Part_0140      1.400070          8855       58      19.46  22-03-2021 15:44:06
Part_0141      1.410116          8913       58      19.48  22-03-2021 15:44:05
Part_0142      1.420162          8971       58      19.29  22-03-2021 15:44:05
Part_0143      1.430035          9028       57      20.90  22-03-2021 15:44:06
Part_0144      1.440080          9086       58      19.52  22-03-2021 15:44:06
Part_0145      1.450126          9144       58      19.32  22-03-2021 15:44:05
Part_0146      1.460172          9202       58      19.35  22-03-2021 15:44:05
Part_0147      1.470045          9259       57      20.70  22-03-2021 15:44:05
Part_0148      1.480091          9317       58      20.81  22-03-2021 15:44:06
Part_0149      1.490137          9375       58      20.09  22-03-2021 15:44:05
Part_0150      1.500009          9432       57      20.81  22-03-2021 15:44:05
Part_0151      1.510055          9490       58      19.31  22-03-2021 15:44:05
Part_0152      1.520101          9548       58      20.31  22-03-2021 15:44:05
Part_0153      1.530147          9606       58      19.61  22-03-2021 15:44:05
Part_0154      1.540020          9663       57      19.47  22-03-2021 15:44:05
Part_0155      1.550066          9721       58      19.32  22-03-2021 15:44:05
Part_0156      1.560112          9779       58      19.41  22-03-2021 15:44:04
Part_0157      1.570157          9837       58      19.27  22-03-2021 15:44:04
Part_0158      1.580030          9894       57      20.43  22-03-2021 15:44:05
Part_0159      1.590076          9952       58      21.79  22-03-2021 15:44:05
Part_0160      1.600122         10010       58      19.35  22-03-2021 15:44:04
Part_0161      1.610168         10068       58      19.81  22-03-2021 15:44:04
Part_0162      1.620041         10125       57      19.34  22-03-2021 15:44:04
Part_0163      1.630086         10183       58      19.39  22-03-2021 15:44:05
Part_0164      1.640132         10241       58      19.44  22-03-2021 15:44:04
Part_0165      1.650005         10298       57      19.26  22-03-2021 15:44:04
Part_0166      1.660051         10356       58      19.35  22-03-2021 15:44:04
Part_0167      1.670097         10414       58      19.49  22-03-2021 15:44:04
Part_0168      1.680143         10472       58      19.54  22-03-2021 15:44:04
Part_0169      1.690015         10529       57      19.49  22-03-2021 15:44:04
Part_0170      1.700061         10587       58      22.56  22-03-2021 15:44:04
Part_0171      1.710107         10645       58      19.93  22-03-2021 15:44:04
Part_0172      1.720153         10703       58      20.61  22-03-2021 15:44:03
Part_0173      1.730026         10760       57      19.53  22-03-2021 15:44:04
Part_0174      1.740072         10818       58      19.52  22-03-2021 15:44:04
Part_0175      1.750118         10876       58      19.88  22-03-2021 15:44:04
Part_0176      1.760163         10934       58      19.83  22-03-2021 15:44:03
Part_0177      1.770036         10991       57      19.20  22-03-2021 15:44:03
Part_0178      1.780082         11049       58      19.42  22-03-2021 15:44:04
Part_0179      1.790128         11107       58      19.44  22-03-2021 15:44:03
Part_0180      1.800001         11164       57      19.12  22-03-2021 15:44:03
Part_0181      1.810047         11222       58      19.73  22-03-2021 15:44:03
Part_0182      1.820092         11280       58      19.34  22-03-2021 15:44:03
Part_0183      1.830138         11338       58      19.49  22-03-2021 15:44:03
Part_0184      1.840011         11395       57      19.74  22-03-2021 15:44:03
Part_0185      1.850057         11453       58      19.99  22-03-2021 15:44:03
Part_0186      1.860103         11511       58      19.65  22-03-2021 15:44:03
Part_0187      1.870149         11569       58      19.15  22-03-2021 15:44:02
Part_0188      1.880021         11626       57      19.27  22-03-2021 15:44:03
Part_0189      1.890067         11684       58      19.18  22-03-2021 15:44:03
Part_0190      1.900113         11742       58      19.75  22-03-2021 15:44:03
Part_0191      1.910159         11800       58      19.46  22-03-2021 15:44:02
Part_0192      1.920032         11857       57      19.27  22-03-2021 15:44:02
Part_0193      1.930078         11915       58      19.08  22-03-2021 15:44:03
Part_0194      1.940124         11973       58      19.38  22-03-2021 15:44:03
Part_0195      1.950169         12031       58      19.34  22-03-2021 15:44:02
Part_0196      1.960042         12088       57      19.11  22-03-2021 15:44:02
Part_0197      1.970088         12146       58      19.12  22-03-2021 15:44:02
Part_0198      1.980134         12204       58      19.49  22-03-2021 15:44:02
Part_0199      1.990007         12261       57      19.62  22-03-2021 15:44:02
Part_0200      2.000052         12319       58      19.70  22-03-2021 15:44:02
Part_0201      2.010098         12377       58      19.43  22-03-2021 15:44:02
Part_0202      2.020144         12435       58      19.09  22-03-2021 15:44:02
Part_0203      2.030017         12492       57      19.10  22-03-2021 15:44:01
Part_0204      2.040063         12550       58      19.42  22-03-2021 15:44:02
Part_0205      2.050109         12608       58      19.38  22-03-2021 15:44:02
Part_0206      2.060155         12666       58      20.74  22-03-2021 15:44:02
Part_0207      2.070027         12723       57      19.46  22-03-2021 15:44:02
Part_0208      2.080073         12781       58      19.50  22-03-2021 15:44:01
Part_0209      2.090119         12839       58      19.34  22-03-2021 15:44:02
Part_0210      2.100165         12897       58      20.92  22-03-2021 15:44:02
Part_0211      2.110038         12954       57      19.70  22-03-2021 15:44:02
Part_0212      2.120084         13012       58      19.45  22-03-2021 15:44:01
Part_0213      2.130130         13070       58      19.70  22-03-2021 15:44:01
Part_0214      2.140002         13127       57      19.62  22-03-2021 15:44:02
Part_0215      2.150048         13185       58      19.58  22-03-2021 15:44:02
Part_0216      2.160094         13243       58      19.75  22-03-2021 15:44:01
Part_0217      2.170140         13301       58      19.32  22-03-2021 15:44:01
Part_0218      2.180013         13358       57      19.52  22-03-2021 15:44:01
Part_0219      2.190058         13416       58      19.37  22-03-2021 15:44:02
Part_0220      2.200104         13474       58      19.39  22-03-2021 15:44:01
Part_0221      2.210150         13532       58      20.71  22-03-2021 15:44:01
Part_0222      2.220023         13589       57      19.55  22-03-2021 15:44:01
Part_0223      2.230069         13647       58      19.25  22-03-2021 15:44:01
Part_0224      2.240115         13705       58      19.34  22-03-2021 15:44:01
Part_0225      2.250161         13763       58      21.65  22-03-2021 15:44:01
Part_0226      2.260033         13820       57      19.28  22-03-2021 15:44:01
Part_0227      2.270079         13878       58      19.25  22-03-2021 15:44:01
Part_0228      2.280125         13936       58      19.28  22-03-2021 15:44:01
Part_0229      2.290171         13994       58      19.33  22-03-2021 15:44:01
Part_0230      2.300044         14051       57      19.47  22-03-2021 15:44:01
Part_0231      2.310090         14109       58      20.08  22-03-2021 15:44:01
Part_0232      2.320135         14167       58      20.71  22-03-2021 15:44:01
Part_0233      2.330008         14224       57      19.27  22-03-2021 15:44:00
Part_0234      2.340054         14282       58      20.01  22-03-2021 15:44:01
Part_0235      2.350100         14340       58      20.90  22-03-2021 15:44:01
Part_0236      2.360146         14398       58      19.34  22-03-2021 15:44:01
Part_0237      2.370019         14455       57      19.45  22-03-2021 15:44:01
Part_0238      2.380064         14513       58      19.18  22-03-2021 15:44:00
Part_0239      2.390110         14571       58      20.39  22-03-2021 15:44:01
Part_0240      2.400156         14629       58      21.64  22-03-2021 15:44:01
Part_0241      2.410029         14686       57      19.31  22-03-2021 15:44:01
Part_0242      2.420075         14744       58      19.44  22-03-2021 15:44:00
Part_0243      2.430121         14802       58      19.58  22-03-2021 15:44:00
Part_0244      2.440167         14860       58      19.44  22-03-2021 15:44:01
Part_0245      2.450039         14917       57      19.57  22-03-2021 15:44:01
Part_0246      2.460085         14975       58      19.59  22-03-2021 15:44:01
Part_0247      2.470131         15033       58      19.86  22-03-2021 15:44:00
Part_0248      2.480004         15090       57      20.26  22-03-2021 15:44:00
Part_0249      2.490050         15148       58      19.36  22-03-2021 15:44:01
Part_0250      2.500096         15206       58      20.05  22-03-2021 15:44:01
Part_0251      2.510141         15264       58      21.70  22-03-2021 15:44:00
Part_0252      2.520014         15321       57      19.67  22-03-2021 15:44:00
Part_0253      2.530060         15379       58      19.34  22-03-2021 15:44:00
Part_0254      2.540106         15437       58      19.58  22-03-2021 15:44:01
Part_0255      2.550097         15495       58      21.20  22-03-2021 15:44:01
Part_0256      2.560041         15555       60      20.54  22-03-2021 15:44:00
Part_0257      2.570076         15618       63      21.31  22-03-2021 15:44:00
Part_0258      2.580103         15683       65      22.05  22-03-2021 15:44:00
Part_0259      2.590062         15749       66      22.36  22-03-2021 15:44:01
Part_0260      2.600064         15816       67      22.77  22-03-2021 15:44:01
Part_0261      2.610065         15883       67      22.99  22-03-2021 15:44:00
Part_0262      2.620009         15949       66      24.74  22-03-2021 15:44:00
Part_0263      2.630138         16015       66      25.32  22-03-2021 15:44:01
Part_0264      2.640067         16078       63      21.89  22-03-2021 15:44:01
Part_0265      2.650009         16139       61      21.73  22-03-2021 15:44:01
Part_0266      2.660015         16198       59      23.03  22-03-2021 15:44:00
Part_0267      2.670155         16257       59      23.52  22-03-2021 15:44:00
Part_0268      2.680035         16318       61      21.54  22-03-2021 15:44:01
Part_0269      2.690047         16384       66      22.71  22-03-2021 15:44:01
Part_0270      2.700045         16454       70      23.39  22-03-2021 15:44:01
Part_0271      2.710064         16528       74      24.89  22-03-2021 15:44:01
Part_0272      2.720005         16605       77      25.81  22-03-2021 15:44:01
Part_0273      2.730030         16686       81      30.02  22-03-2021 15:44:01
Part_0274      2.740033         16770       84      28.50  22-03-2021 15:44:01
Part_0275      2.750030         16857       87      31.67  22-03-2021 15:44:02
Part_0276      2.760026         16947       90      30.10  22-03-2021 15:44:02
Part_0277      2.770019         17040       93      31.02  22-03-2021 15:44:02
Part_0278      2.780006         17136       96      31.55  22-03-2021 15:44:03
Part_0279      2.790087         17236      100      36.05  22-03-2021 15:44:03
Part_0280      2.800093         17338      102      36.17  22-03-2021 15:44:03
Part_0281      2.810016         17441      103      38.65  22-03-2021 15:44:04
Part_0282      2.820003         17545      104      36.68  22-03-2021 15:44:04
Part_0283      2.830035         17648      103      33.96  22-03-2021 15:44:04
Part_0284      2.840031         17748      100      32.40  22-03-2021 15:44:05
Part_0285      2.850042         17845       97      32.97  22-03-2021 15:44:04
Part_0286      2.860089         17939       94      31.07  22-03-2021 15:44:04
Part_0287      2.870083         18029       90      30.42  22-03-2021 15:44:05
Part_0288      2.880043         18115       86      29.27  22-03-2021 15:44:05
Part_0289      2.890019         18197       82      27.58  22-03-2021 15:44:05
Part_0290      2.900132         18275       78      25.86  22-03-2021 15:44:05
Part_0291      2.910138         18345       70      25.75  22-03-2021 15:44:06
Part_0292      2.920113         18405       60      23.01  22-03-2021 15:44:05
Part_0293      2.930159         18463       58      20.90  22-03-2021 15:44:05
Part_0294      2.940028         18520       57      19.83  22-03-2021 15:44:05
Part_0295      2.950151         18580       60      20.23  22-03-2021 15:44:06
Part_0296      2.960129         18641       61      20.60  22-03-2021 15:44:05
Part_0297      2.970051         18703       62      26.10  22-03-2021 15:44:05
Part_0298      2.980126         18767       64      23.75  22-03-2021 15:44:05
Part_0299      2.990089         18831       64      25.09  22-03-2021 15:44:05
Part_0300      3.000008         18895       64      23.72  22-03-2021 15:44:06
Part_0301      3.010112         18960       65      23.55  22-03-2021 15:44:05
Part_0302      3.020138         19024       64      23.50  22-03-2021 15:44:05
Part_0303      3.030008         19086       62      22.00  22-03-2021 15:44:05
Part_0304      3.040117         19148       62      23.73  22-03-2021 15:44:06
Part_0305      3.050024         19207       59      21.10  22-03-2021 15:44:06
Part_0306      3.060036         19265       58      20.44  22-03-2021 15:44:05
Part_0307      3.070082         19323       58      21.25  22-03-2021 15:44:05
Part_0308      3.080128         19381       58      19.70  22-03-2021 15:44:05
Part_0309      3.090000         19438       57      19.89  22-03-2021 15:44:06
Part_0310      3.100046         19496       58      20.60  22-03-2021 15:44:06
Part_0311      3.110092         19554       58      22.74  22-03-2021 15:44:05
Part_0312      3.120138         19612       58      21.41  22-03-2021 15:44:05
Part_0313      3.130011         19669       57      20.58  22-03-2021 15:44:06
Part_0314      3.140057         19727       58      21.11  22-03-2021 15:44:06
Part_0315      3.150102         19785       58      20.47  22-03-2021 15:44:05
Part_0316      3.160148         19843       58      21.15  22-03-2021 15:44:05
Part_0317      3.170021         19900       57      19.68  22-03-2021 15:44:05
Part_0318      3.180067         19958       58      21.51  22-03-2021 15:44:06
Part_0319      3.190113         20016       58      20.85  22-03-2021 15:44:05
Part_0320      3.200159         20074       58      21.93  22-03-2021 15:44:05
Part_0321      3.210031         20131       57      20.29  22-03-2021 15:44:05
Part_0322      3.220077         20189       58      21.23  22-03-2021 15:44:05
Part_0323      3.230123         20247       58      23.29  22-03-2021 15:44:06
Part_0324      3.240169         20305       58      20.15  22-03-2021 15:44:05
Part_0325      3.250042         20362       57      21.35  22-03-2021 15:44:05
Part_0326      3.260088         20420       58      19.78  22-03-2021 15:44:05
Part_0327      3.270134         20478       58      20.37  22-03-2021 15:44:05
Part_0328      3.280006         20535       57      23.26  22-03-2021 15:44:06
Part_0329      3.290052         20593       58      20.70  22-03-2021 15:44:05
Part_0330      3.300098         20651       58      19.73  22-03-2021 15:44:05
Part_0331      3.310144         20709       58      19.87  22-03-2021 15:44:05
Part_0332      3.320017         20766       57      21.06  22-03-2021 15:44:06
Part_0333      3.330063         20824       58      21.11  22-03-2021 15:44:05
Part_0334      3.340108         20882       58      20.42  22-03-2021 15:44:05
Part_0335      3.350154         20940       58      21.56  22-03-2021 15:44:05
Part_0336      3.360027         20997       57      21.05  22-03-2021 15:44:05
Part_0337      3.370073         21055       58      22.10  22-03-2021 15:44:06
Part_0338      3.380119         21113       58      20.96  22-03-2021 15:44:05
Part_0339      3.390165         21171       58      21.44  22-03-2021 15:44:05
Part_0340      3.400037         21228       57      20.25  22-03-2021 15:44:05
Part_0341      3.410083         21286       58      22.10  22-03-2021 15:44:05
Part_0342      3.420129         21344       58      21.29  22-03-2021 15:44:05
Part_0343      3.430002         21401       57      21.07  22-03-2021 15:44:05
Part_0344      3.440048         21459       58      21.75  22-03-2021 15:44:05
Part_0345      3.450094         21517       58      21.87  22-03-2021 15:44:05
Part_0346      3.460140         21575       58      20.83  22-03-2021 15:44:05
Part_0347      3.470012         21632       57      19.88  22-03-2021 15:44:05
Part_0348      3.480058         21690       58      20.76  22-03-2021 15:44:05
Part_0349      3.490104         21748       58      22.54  22-03-2021 15:44:05
Part_0350      3.500150         21806       58      23.92  22-03-2021 15:44:05
Part_0351      3.510023         21863       57      21.83  22-03-2021 15:44:05
Part_0352      3.520068         21921       58      20.12  22-03-2021 15:44:05
Part_0353      3.530114         21979       58      22.24  22-03-2021 15:44:05
Part_0354      3.540160         22037       58      21.15  22-03-2021 15:44:05
Part_0355      3.550033         22094       57      20.65  22-03-2021 15:44:05
Part_0356      3.560079         22152       58      20.30  22-03-2021 15:44:05
Part_0357      3.570125         22210       58      21.65  22-03-2021 15:44:05
Part_0358      3.580171         22268       58      23.29  22-03-2021 15:44:05
Part_0359      3.590043         22325       57      22.66  22-03-2021 15:44:05
Part_0360      3.600089         22383       58      23.28  22-03-2021 15:44:06
Part_0361      3.610135         22441       58      24.37  22-03-2021 15:44:05
Part_0362      3.620008         22498       57      22.92  22-03-2021 15:44:05
Part_0363      3.630054         22556       58      19.57  22-03-2021 15:44:05
Part_0364      3.640100         22614       58      22.74  22-03-2021 15:44:05
Part_0365      3.650146         22672       58      21.27  22-03-2021 15:44:05
Part_0366      3.660018         22729       57      22.36  22-03-2021 15:44:05
Part_0367      3.670064         22787       58      21.28  22-03-2021 15:44:05
Part_0368      3.680110         22845       58      21.01  22-03-2021 15:44:05
Part_0369      3.690156         22903       58      24.23  22-03-2021 15:44:06
Part_0370      3.700029         22960       57      20.90  22-03-2021 15:44:05
Part_0371      3.710074         23018       58      21.01  22-03-2021 15:44:05
Part_0372      3.720120         23076       58      24.37  22-03-2021 15:44:05
Part_0373      3.730166         23134       58      23.41  22-03-2021 15:44:05
Part_0374      3.740039         23191       57      22.95  22-03-2021 15:44:06
Part_0375      3.750085         23249       58      23.68  22-03-2021 15:44:05
Part_0376      3.760131         23307       58      19.90  22-03-2021 15:44:05
Part_0377      3.770003         23364       57      21.02  22-03-2021 15:44:05
Part_0378      3.780049         23422       58      21.83  22-03-2021 15:44:06
Part_0379      3.790095         23480       58      23.69  22-03-2021 15:44:05
Part_0380      3.800141         23538       58      21.98  22-03-2021 15:44:05
Part_0381      3.810014         23595       57      23.01  22-03-2021 15:44:05
Part_0382      3.820060         23653       58      23.39  22-03-2021 15:44:05
Part_0383      3.830106         23711       58      20.01  22-03-2021 15:44:06
Part_0384      3.840151         23769       58      22.07  22-03-2021 15:44:05
Part_0385      3.850024         23826       57      19.77  22-03-2021 15:44:05
Part_0386      3.860070         23884       58      19.48  22-03-2021 15:44:05
Part_0387      3.870116         23942       58      19.64  22-03-2021 15:44:05
Part_0388      3.880162         24000       58      19.74  22-03-2021 15:44:05
Part_0389      3.890035         24057       57      22.19  22-03-2021 15:44:05
Part_0390      3.900080         24115       58      21.03  22-03-2021 15:44:05
Part_0391      3.910126         24173       58      21.91  22-03-2021 15:44:05
Part_0392      3.920172         24231       58      20.96  22-03-2021 15:44:06
Part_0393      3.930045         24288       57      20.02  22-03-2021 15:44:05
Part_0394      3.940091         24346       58      20.87  22-03-2021 15:44:05
Part_0395      3.950137         24404       58      21.58  22-03-2021 15:44:05
Part_0396      3.960009         24461       57      20.98  22-03-2021 15:44:05
Part_0397      3.970055         24519       58      20.83  22-03-2021 15:44:05
Part_0398      3.980101         24577       58      20.58  22-03-2021 15:44:05
Part_0399      3.990147         24635       58      20.21  22-03-2021 15:44:05
Part_0400      4.000020         24692       57      20.37  22-03-2021 15:44:05
Part_0401      4.010066         24750       58      20.35  22-03-2021 15:44:05
Part_0402      4.020112         24808       58      20.26  22-03-2021 15:44:05
Part_0403      4.030157         24866       58      20.63  22-03-2021 15:44:05
Part_0404      4.040030         24923       57      20.51  22-03-2021 15:44:05
Part_0405      4.050076         24981       58      20.48  22-03-2021 15:44:05
Part_0406      4.060122         25039       58      20.31  22-03-2021 15:44:04
Part_0407      4.070168         25097       58      21.16  22-03-2021 15:44:05
Part_0408      4.080041         25154       57      21.08  22-03-2021 15:44:05
Part_0409      4.090086         25212       58      20.54  22-03-2021 15:44:05
Part_0410      4.100132         25270       58      20.93  22-03-2021 15:44:05
Part_0411      4.110005         25327       57      20.39  22-03-2021 15:44:04
Part_0412      4.120051         25385       58      20.59  22-03-2021 15:44:05
Part_0413      4.130097         25443       58      20.52  22-03-2021 15:44:05
Part_0414      4.140143         25501       58      20.74  22-03-2021 15:44:05
Part_0415      4.150015         25558       57      20.75  22-03-2021 15:44:05
Part_0416      4.160061         25616       58      20.20  22-03-2021 15:44:04
Part_0417      4.170107         25674       58      22.12  22-03-2021 15:44:05
Part_0418      4.180153         25732       58      20.64  22-03-2021 15:44:05
Part_0419      4.190026         25789       57      20.50  22-03-2021 15:44:05
Part_0420      4.200072         25847       58      20.12  22-03-2021 15:44:04
Part_0421      4.210118         25905       58      20.26  22-03-2021 15:44:05
Part_0422      4.220163         25963       58      20.22  22-03-2021 15:44:05
Part_0423      4.230036         26020       57      19.91  22-03-2021 15:44:05
Part_0424      4.240082         26078       58      20.01  22-03-2021 15:44:05
Part_0425      4.250128         26136       58      19.79  22-03-2021 15:44:04
Part_0426      4.260001         26193       57      19.60  22-03-2021 15:44:05
Part_0427      4.270047         26251       58      20.48  22-03-2021 15:44:05
Part_0428      4.280092         26309       58      19.81  22-03-2021 15:44:05
Part_0429      4.290138         26367       58      19.61  22-03-2021 15:44:04
Part_0430      4.300011         26424       57      19.54  22-03-2021 15:44:04
Part_0431      4.310057         26482       58      19.72  22-03-2021 15:44:05
Part_0432      4.320103         26540       58      19.70  22-03-2021 15:44:05
Part_0433      4.330149         26598       58      19.85  22-03-2021 15:44:05
Part_0434      4.340021         26655       57      20.42  22-03-2021 15:44:04
Part_0435      4.350067         26713       58      19.70  22-03-2021 15:44:04
Part_0436      4.360113         26771       58      19.44  22-03-2021 15:44:04
Part_0437      4.370159         26829       58      19.95  22-03-2021 15:44:05
Part_0438      4.380032         26886       57      19.80  22-03-2021 15:44:04
Part_0439      4.390078         26944       58      19.98  22-03-2021 15:44:04
Part_0440      4.400124         27002       58      20.58  22-03-2021 15:44:04
Part_0441      4.410169         27060       58      19.91  22-03-2021 15:44:05
Part_0442      4.420042         27117       57      19.53  22-03-2021 15:44:05
Part_0443      4.430088         27175       58      19.92  22-03-2021 15:44:04
Part_0444      4.440134         27233       58      19.70  22-03-2021 15:44:04
Part_0445      4.450007         27290       57      21.29  22-03-2021 15:44:04
Part_0446      4.460052         27348       58      20.21  22-03-2021 15:44:05
Part_0447      4.470098         27406       58      20.24  22-03-2021 15:44:04
Part_0448      4.480144         27464       58      19.90  22-03-2021 15:44:04
Part_0449      4.490017         27521       57      19.53  22-03-2021 15:44:04
Part_0450      4.500162         27580       59      20.77  22-03-2021 15:44:04
Part_0451      4.510077         27640       60      20.73  22-03-2021 15:44:05
Part_0452      4.520019         27703       63      23.22  22-03-2021 15:44:04
Part_0453      4.530075         27770       67      23.03  22-03-2021 15:44:04
Part_0454      4.540032         27840       70      24.42  22-03-2021 15:44:04
Part_0455      4.550121         27915       75      27.22  22-03-2021 15:44:05
Part_0456      4.560060         27993       78      29.70  22-03-2021 15:44:05
Part_0457      4.570064         28075       82      29.60  22-03-2021 15:44:04
Part_0458      4.580092         28159       84      28.72  22-03-2021 15:44:04
Part_0459      4.590072         28240       81      28.11  22-03-2021 15:44:05
Part_0460      4.600126         28313       73      24.15  22-03-2021 15:44:05
Part_0461      4.610045         28377       64      21.61  22-03-2021 15:44:05
Part_0462      4.620073         28440       63      22.59  22-03-2021 15:44:04
Part_0463      4.630109         28507       67      23.61  22-03-2021 15:44:05
Part_0464      4.640074         28577       70      25.22  22-03-2021 15:44:05
Part_0465      4.650130         28651       74      27.23  22-03-2021 15:44:05
Part_0466      4.660009         28727       76      29.75  22-03-2021 15:44:05
Part_0467      4.670098         28808       81      32.76  22-03-2021 15:44:05
Part_0468      4.680030         28891       83      28.46  22-03-2021 15:44:05
Part_0469      4.690064         28978       87      28.18  22-03-2021 15:44:05
Part_0470      4.700107         29068       90      30.95  22-03-2021 15:44:06
Part_0471      4.710083         29160       92      31.58  22-03-2021 15:44:06
Part_0472      4.720033         29254       94      31.00  22-03-2021 15:44:05
Part_0473      4.730095         29351       97      30.95  22-03-2021 15:44:06
Part_0474      4.740095         29449       98      33.12  22-03-2021 15:44:06
Part_0475      4.750066         29548       99      31.97  22-03-2021 15:44:06
Part_0476      4.760019         29648      100      32.65  22-03-2021 15:44:07
Part_0477      4.770040         29750      102      32.92  22-03-2021 15:44:06
Part_0478      4.780065         29853      103      33.40  22-03-2021 15:44:06
Part_0479      4.790087         29956      103      33.30  22-03-2021 15:44:07
Part_0480      4.800003         30056      100      32.81  22-03-2021 15:44:07
Part_0481      4.810079         30153       97      31.30  22-03-2021 15:44:07
Part_0482      4.820032         30243       90      29.75  22-03-2021 15:44:06
Part_0483      4.830011         30328       85      27.88  22-03-2021 15:44:07
Part_0484      4.840014         30409       81      26.57  22-03-2021 15:44:07
Part_0485      4.850067         30487       78      25.89  22-03-2021 15:44:07
Part_0486      4.860100         30562       75      24.42  22-03-2021 15:44:08
Part_0487      4.870062         30634       72      24.15  22-03-2021 15:44:07
Part_0488      4.880067         30704       70      23.50  22-03-2021 15:44:07
Part_0489      4.890113         30772       68      22.37  22-03-2021 15:44:07
Part_0490      4.900060         30837       65      22.77  22-03-2021 15:44:07
Part_0491      4.910078         30900       63      20.79  22-03-2021 15:44:08
Part_0492      4.920042         30960       60      20.42  22-03-2021 15:44:07
Part_0493      4.930055         31018       58      19.41  22-03-2021 15:44:07
Part_0494      4.940100         31076       58      19.21  22-03-2021 15:44:07
Part_0495      4.950146         31134       58      19.97  22-03-2021 15:44:07
Part_0496      4.960019         31191       57      19.72  22-03-2021 15:44:07
Part_0497      4.970065         31249       58      19.63  22-03-2021 15:44:07
Part_0498      4.980111         31307       58      20.02  22-03-2021 15:44:07
Part_0499      4.990100         31365       58      20.13  22-03-2021 15:44:07
Part_0500      5.000130         31424       59      20.42  22-03-2021 15:44:06
Part_0501      5.010153         31483       59      20.65  22-03-2021 15:44:07
Part_0502      5.020127         31541       58      21.94  22-03-2021 15:44:07
Part_0503      5.030172         31599       58      20.02  22-03-2021 15:44:07
Part_0504      5.040045         31656       57      19.50  22-03-2021 15:44:07
Part_0505      5.050068         31714       58      19.28  22-03-2021 15:44:06
Part_0506      5.060076         31775       61      20.67  22-03-2021 15:44:07
Part_0507      5.070086         31840       65      21.98  22-03-2021 15:44:07
Part_0508      5.080031         31908       68      23.23  22-03-2021 15:44:07
Part_0509      5.090137         31980       72      24.27  22-03-2021 15:44:06
Part_0510      5.100070         32053       73      25.90  22-03-2021 15:44:07
Part_0511      5.110049         32128       75      25.05  22-03-2021 15:44:07
Part_0512      5.120013         32204       76      25.13  22-03-2021 15:44:07
Part_0513      5.130020         32281       77      26.67  22-03-2021 15:44:07
Part_0514      5.140124         32359       78      26.74  22-03-2021 15:44:07
Part_0515      5.150107         32436       77      26.81  22-03-2021 15:44:07
Part_0516      5.160005         32512       76      25.69  22-03-2021 15:44:07
Part_0517      5.170090         32589       77      27.02  22-03-2021 15:44:07
Part_0518      5.180089         32665       76      25.17  22-03-2021 15:44:08
Part_0519      5.190017         32740       75      24.79  22-03-2021 15:44:07
Part_0520      5.200022         32815       75      24.70  22-03-2021 15:44:07
Part_0521      5.210122         32890       75      24.13  22-03-2021 15:44:07
Part_0522      5.220062         32963       73      24.23  22-03-2021 15:44:08
Part_0523      5.230137         33036       73      26.19  22-03-2021 15:44:07
Part_0524      5.240118         33107       71      24.00  22-03-2021 15:44:07
Part_0525      5.250104         33176       69      25.07  22-03-2021 15:44:07
Part_0526      5.260138         33242       66      22.32  22-03-2021 15:44:08
Part_0527      5.270006         33303       61      20.92  22-03-2021 15:44:08
Part_0528      5.280145         33363       60      19.92  22-03-2021 15:44:07
Part_0529      5.290012         33420       57      19.59  22-03-2021 15:44:07
Part_0530      5.300058         33478       58      20.02  22-03-2021 15:44:07
Part_0531      5.310104         33536       58      19.33  22-03-2021 15:44:08
Part_0532      5.320150         33594       58      19.38  22-03-2021 15:44:07
Part_0533      5.330023         33651       57      21.78  22-03-2021 15:44:07
Part_0534      5.340069         33709       58      19.27  22-03-2021 15:44:07
Part_0535      5.350114         33767       58      19.50  22-03-2021 15:44:07
Part_0536      5.360160         33825       58      19.84  22-03-2021 15:44:08
Part_0537      5.370033         33882       57      19.91  22-03-2021 15:44:07
Part_0538      5.380079         33940       58      19.80  22-03-2021 15:44:07
Part_0539      5.390125         33998       58      19.31  22-03-2021 15:44:07
Part_0540      5.400171         34056       58      19.44  22-03-2021 15:44:07
Part_0541      5.410043         34113       57      19.24  22-03-2021 15:44:07
Part_0542      5.420089         34171       58      19.34  22-03-2021 15:44:07
Part_0543      5.430135         34229       58      19.37  22-03-2021 15:44:07
Part_0544      5.440008         34286       57      19.50  22-03-2021 15:44:07
Part_0545      5.450054         34344       58      19.40  22-03-2021 15:44:07
Part_0546      5.460100         34402       58      22.05  22-03-2021 15:44:07
Part_0547      5.470146         34460       58      19.53  22-03-2021 15:44:07
Part_0548      5.480018         34517       57      22.09  22-03-2021 15:44:07
Part_0549      5.490064         34575       58      20.69  22-03-2021 15:44:07
Part_0550      5.500110         34633       58      19.66  22-03-2021 15:44:06
Part_0551      5.510156         34691       58      19.79  22-03-2021 15:44:07
Part_0552      5.520029         34748       57      20.38  22-03-2021 15:44:07
Part_0553      5.530075         34806       58      21.30  22-03-2021 15:44:07
Part_0554      5.540120         34864       58      23.15  22-03-2021 15:44:07
Part_0555      5.550166         34922       58      21.23  22-03-2021 15:44:07
Part_0556      5.560039         34979       57      21.50  22-03-2021 15:44:07
Part_0557      5.570085         35037       58      21.77  22-03-2021 15:44:07
Part_0558      5.580131         35095       58      20.73  22-03-2021 15:44:07
Part_0559      5.590003         35152       57      21.53  22-03-2021 15:44:07
Part_0560      5.600049         35210       58      20.49  22-03-2021 15:44:07
Part_0561      5.610095         35268       58      20.34  22-03-2021 15:44:07
Part_0562      5.620141         35326       58      25.33  22-03-2021 15:44:07
Part_0563      5.630014         35383       57      25.26  22-03-2021 15:44:07
Part_0564      5.640060         35441       58      20.69  22-03-2021 15:44:06
Part_0565      5.650106         35499       58      23.08  22-03-2021 15:44:07
Part_0566      5.660152         35557       58      20.19  22-03-2021 15:44:07
Part_0567      5.670024         35614       57      21.52  22-03-2021 15:44:07
Part_0568      5.680070         35672       58      20.10  22-03-2021 15:44:07
Part_0569      5.690116         35730       58      20.75  22-03-2021 15:44:07
Part_0570      5.700162         35788       58      19.99  22-03-2021 15:44:07
Part_0571      5.710035         35845       57      21.72  22-03-2021 15:44:07
Part_0572      5.720080         35903       58      19.98  22-03-2021 15:44:07
Part_0573      5.730126         35961       58      20.71  22-03-2021 15:44:06
Part_0574      5.740172         36019       58      20.24  22-03-2021 15:44:07
Part_0575      5.750045         36076       57      21.47  22-03-2021 15:44:07
Part_0576      5.760091         36134       58      20.12  22-03-2021 15:44:07
Part_0577      5.770137         36192       58      21.72  22-03-2021 15:44:07
Part_0578      5.780009         36249       57      20.05  22-03-2021 15:44:06
Part_0579      5.790055         36307       58      20.43  22-03-2021 15:44:07
Part_0580      5.800101         36365       58      20.12  22-03-2021 15:44:07
Part_0581      5.810147         36423       58      22.46  22-03-2021 15:44:07
Part_0582      5.820020         36480       57      19.87  22-03-2021 15:44:06
Part_0583      5.830066         36538       58      19.19  22-03-2021 15:44:06
Part_0584      5.840112         36596       58      19.50  22-03-2021 15:44:07
Part_0585      5.850158         36654       58      19.43  22-03-2021 15:44:07
Part_0586      5.860030         36711       57      21.09  22-03-2021 15:44:07
Part_0587      5.870076         36769       58      24.32  22-03-2021 15:44:06
Part_0588      5.880122         36827       58      19.92  22-03-2021 15:44:06
Part_0589      5.890168         36885       58      22.51  22-03-2021 15:44:07
Part_0590      5.900041         36942       57      19.38  22-03-2021 15:44:07
Part_0591      5.910086         37000       58      19.17  22-03-2021 15:44:06
Part_0592      5.920132         37058       58      19.47  22-03-2021 15:44:06
Part_0593      5.930005         37115       57      19.17  22-03-2021 15:44:06
Part_0594      5.940051         37173       58      19.11  22-03-2021 15:44:07
Part_0595      5.950097         37231       58      19.92  22-03-2021 15:44:07
Part_0596      5.960143         37289       58      22.15  22-03-2021 15:44:06
Part_0597      5.970015         37346       57      20.50  22-03-2021 15:44:06
Part_0598      5.980061         37404       58      19.24  22-03-2021 15:44:06
Part_0599      5.990107         37462       58      19.10  22-03-2021 15:44:07
Part_0600      6.000153         37520       58      19.47  22-03-2021 15:44:07

[Simulation finished  22-03-2021 15:44:07]
Particles of simulation (initial): 7828
DTs adjusted to DtMin............: 0
Excluded particles...............: 0
Total Runtime....................: 131.488770 sec.
Simulation Runtime...............: 131.353821 sec.
Runtime per physical second......: 21.891745 sec.
Steps per second.................: 285.640717
Steps of simulation..............: 37520
Particle Interactions Per Second.: 0.01684483 GPIPS
Total particle interactions (f+b): 2.212633248 GPIs (2.2126e+09 + 0.0000e+00)
PART files.......................: 601
Maximum number of particles......: 7828
Maximum number of cells..........: 1428
CPU Memory.......................: 763000 (0.73 MB)
GPU Memory.......................: 1567716 (1.50 MB)
 
[GPU Timers]
VA-Init..........................: 0.085164 sec.
NL-Limits........................: 3.728760 sec.
NL-PreSort.......................: 0.286303 sec.
NL-RadixSort.....................: 5.002998 sec.
NL-CellBegin.....................: 9.888072 sec.
NL-SortData......................: 3.037767 sec.
NL-OutCheck......................: 0.183393 sec.
CF-PreForces.....................: 7.607287 sec.
CF-Forces........................: 19.552834 sec.
SU-Shifting......................: 0.000000 sec.
SU-ComputeStep...................: 1.195878 sec.
SU-Floating......................: 5.269055 sec.
SU-Motion........................: 0.000000 sec.
SU-Periodic......................: 0.000000 sec.
SU-ResizeNp......................: 0.000000 sec.
SU-DownData......................: 0.284965 sec.
SU-SavePart......................: 0.001460 sec.
SU-Chrono........................: 19.865570 sec.
SU-BoundCorr.....................: 0.000000 sec.
SU-InOut.........................: 0.000000 sec.
 
[Output files]
- CfgChrono_Scheme.vtk.......: Saves VTK file with scheme of Chrono objects and links between objects.
- CfgInit_Domain.vtk.........: Saves the limits of the case and the simulation domain limits.
- CfgInit_MapCells.vtk.......: Saves the cell division of the simulation domain.
- Run.csv....................: One line CSV file with execution parameters and other simulation data.
- Run.out....................: Log file of the simulation.
- chrono_objs/XXXX_mkXXXX.obj: Geometry files used for Chrono interaction.
- data/PartFloat.fbi4........: Binary file with floating body information for each instant (input for FloatingInfo program).
- data/PartInfo.ibi4.........: Binary file with execution information for each instant (input for PartInfo program).
- data/PartOut_???.obi4......: Binary file with particles excluded during simulation (input for PartVtkOut program).
- data/Part_????.bi4.........: Binary file with particle data in different instants.
- data/Part_Head.ibi4........: Binary file with basic information of simulation data.
 

Finished execution (code=0).

